20

C          0.87880        0.05090       -0.00750
C          2.39942        0.06642       -0.04709
C          2.98022        0.92609        1.07860
C          4.52026        0.95605        1.10159
C          5.11580        1.53124       -0.18469
C          5.00487        1.77415        2.30138
H          0.48586       -0.56024       -0.82576
H          0.47501        1.06281       -0.11635
H          0.51341       -0.36650        0.93580
H          2.71117        0.45043       -1.02351
H          2.77472       -0.95984        0.03771
H          2.61977        0.53752        2.03941
H          2.59400        1.95006        0.98899
H          4.88936       -0.07085        1.22153
H          4.71737        2.53014       -0.39389
H          4.90273        0.89037       -1.04561
H          6.20542        1.61144       -0.10639
H          4.66476        2.81324        2.23688
H          6.09886        1.77981        2.35341
H          4.62925        1.35232        3.23946
